/*--------------------------------*- C++ -*----------------------------------*\
  =========                 |
  \\      /  F ield         | OpenFOAM: The Open Source CFD Toolbox
   \\    /   O peration     | Website:  https://openfoam.org
    \\  /    A nd           | Version:  6
     \\/     M anipulation  |
\*---------------------------------------------------------------------------*/
FoamFile
{
    version         2;
    format          ascii;
    class           dictionary;
    location        "system";
    object          controlDict;
}

application     ABLSolver;

libs            ( "libSOWFAboundaryConditions.so" "libSOWFAincompressibleTurbulenceModels.so" );

isRestart       false;

startFrom       startTime;

startTime       20000;

stopAt          endTime;

endTime         22000;

deltaT          0.5;

writeControl    adjustableRunTime;

writeInterval   5000;

purgeWrite      0;

writeFormat     binary;

writePrecision  12;

writeCompression uncompressed;

timeFormat      general;

timePrecision   12;

runTimeModifiable yes;

adjustTimeStep  yes;

maxCo           0.75;

maxDeltaT       25;

functions
{
#include "sampling/planarAveraging"
#include "sampling/boundaryData"
}


// ************************************************************************* //
